rawData/OpenDSS_Alpha_Model/Load.dss
new Load._0160533774 phases=3 bus1=_406-92398_N.1.2.3 conn=w kw=0.00033 kvar=0.00007 numcust=1 kv=0.2078 model=1
new Load._3548112221 phases=3 bus1=_406-3294196_N.1.2.3 conn=w kw=0.00003 kvar=0.00001 numcust=1 kv=0.2078 model=1
new Load._2850109777 phases=3 bus1=_406-92418_N.1.2.3 conn=w kw=0.00158 kvar=0.00032 numcust=1 kv=0.2078 model=1
new Load._8529477361 phases=3 bus1=_406-92372_N.1.2.3 conn=w kw=0.00143 kvar=0.00029 numcust=1 kv=0.2078 model=1
new Load._2039027962 phases=3 bus1=_406-1448211_N.1.2.3 conn=w kw=0.00018 kvar=0.00004 numcust=1 kv=0.2078 model=1
new Load._8650369099 phases=3 bus1=_406-92764_N.1.2.3 conn=w kw=0.00018 kvar=0.00004 numcust=1 kv=0.2078 model=1
new Load._3449763087 phases=3 bus1=_406-3294196_N.1.2.3 conn=w kw=0.00015 kvar=0.00003 numcust=1 kv=0.2078 model=1
new Load._8650369098 phases=3 bus1=_406-92764_N.1.2.3 conn=w kw=0.00017 kvar=0.00003 numcust=1 kv=0.2078 model=1
new Load._5060364075 phases=2 bus1=_406-92192_N.2.1 conn=w kw=0.00025 kvar=0.00005 numcust=1 kv=0.2078 model=1
new Load._6690369851 phases=2 bus1=_406-92304_N.1.2 conn=w kw=0.00013 kvar=0.00003 numcust=1 kv=0.2078 model=1
new Load._0436200371 phases=3 bus1=_406-1855460_N.1.2.3 conn=w kw=0.00018 kvar=0.00004 numcust=1 kv=0.2078 model=1
new Load._3900651220 phases=3 bus1=_406-1358181_N.1.2.3 conn=w kw=0.00000 kvar=0.00000 numcust=1 kv=0.4798 model=1
new Load._3450710463 phases=2 bus1=_406-2300055_N.1.2 conn=w kw=0.00103 kvar=0.00021 numcust=1 kv=0.2078 model=1
new Load._8650361594 phases=3 bus1=_406-92770_N.1.2.3 conn=w kw=0.00006 kvar=0.00001 numcust=1 kv=0.2078 model=1
new Load._5530106125 phases=2 bus1=_406-92352_N.2.1 conn=w kw=0.00043 kvar=0.00009 numcust=1 kv=0.2078 model=1
new Load._0160531581 phases=3 bus1=_406-92398_N.1.2.3 conn=w kw=0.00069 kvar=0.00014 numcust=1 kv=0.2078 model=1
new Load._1777653843 phases=3 bus1=_406-3294196_N.1.2.3 conn=w kw=0.00013 kvar=0.00003 numcust=1 kv=0.2078 model=1
new Load._0020703944 phases=3 bus1=_406-2232195_N.1.2.3 conn=w kw=0.00182 kvar=0.00037 numcust=1 kv=0.2078 model=1
new Load._3443428360 phases=3 bus1=_406-3294196_N.1.2.3 conn=w kw=0.00011 kvar=0.00002 numcust=1 kv=0.2078 model=1
new Load._0020703946 phases=3 bus1=_406-2232195_N.1.2.3 conn=w kw=0.00642 kvar=0.00130 numcust=1 kv=0.2078 model=1
new Load._3070372880 phases=3 bus1=_406-92692_N.1.2.3 conn=w kw=0.00001 kvar=0.00000 numcust=1 kv=0.2078 model=1
new Load._1420751813 phases=2 bus1=_406-2315083_N.1.2 conn=w kw=0.00000 kvar=0.00000 numcust=1 kv=0.2078 model=1
new Load._0615841789 phases=3 bus1=_406-3294196_N.1.2.3 conn=w kw=0.00012 kvar=0.00002 numcust=1 kv=0.2078 model=1
new Load._8220369775 phases=3 bus1=_406-92763_N.1.2.3 conn=w kw=0.01347 kvar=0.00274 numcust=1 kv=0.2078 model=1
new Load._1420751814 phases=2 bus1=_406-2315082_N.2.1 conn=w kw=0.00000 kvar=0.00000 numcust=1 kv=0.2078 model=1
new Load._2829161439 phases=3 bus1=_406-3294196_N.1.2.3 conn=w kw=0.00005 kvar=0.00001 numcust=1 kv=0.2078 model=1
new Load._3350683028 phases=3 bus1=_406-1833573_N.1.2.3 conn=w kw=0.00026 kvar=0.00005 numcust=1 kv=0.2078 model=1
new Load._3120373279 phases=2 bus1=_406-2891192_N.2.1 conn=w kw=0.00032 kvar=0.00006 numcust=1 kv=0.2078 model=1
new Load._3320373519 phases=2 bus1=_406-92243_N.1.2 conn=w kw=0.00072 kvar=0.00015 numcust=1 kv=0.2078 model=1
new Load._4310783288 phases=3 bus1=_406-2094178_N.1.2.3 conn=w kw=0.10000 kvar=0.00000 numcust=1 kv=0.2078 model=1
new Load._9660369647 phases=2 bus1=_406-92280_N.1.2 conn=w kw=0.00034 kvar=0.00007 numcust=1 kv=0.2078 model=1
new Load._1887682178 phases=3 bus1=_406-3294196_N.1.2.3 conn=w kw=0.00005 kvar=0.00001 numcust=1 kv=0.2078 model=1
new Load._8700369456 phases=2 bus1=_406-92300_N.2.1 conn=w kw=0.00034 kvar=0.00007 numcust=1 kv=0.2078 model=1
new Load._0960365138 phases=2 bus1=_406-92358_N.1.2 conn=w kw=0.00030 kvar=0.00006 numcust=1 kv=0.2078 model=1
new Load._4540368491 phases=2 bus1=_406-92272_N.1.2 conn=w kw=0.00026 kvar=0.00005 numcust=1 kv=0.2078 model=1
new Load._5090366080 phases=2 bus1=_406-92179_N.1.2 conn=w kw=0.00038 kvar=0.00008 numcust=1 kv=0.2078 model=1
new Load._8260111198 phases=3 bus1=_406-92628_N.1.2.3 conn=w kw=0.00355 kvar=0.00072 numcust=1 kv=0.2078 model=1
new Load._1655471428 phases=3 bus1=_406-3294196_N.1.2.3 conn=w kw=0.00006 kvar=0.00001 numcust=1 kv=0.2078 model=1
new Load._5320366564 phases=2 bus1=_406-92270_N.1.2 conn=w kw=0.00029 kvar=0.00006 numcust=1 kv=0.2078 model=1
new Load._8060718981 phases=2 bus1=_406-2526307_N.1.3 conn=w kw=0.00410 kvar=0.00083 numcust=1 kv=0.2078 model=1
new Load._7599689267 phases=3 bus1=_406-3294196_N.1.2.3 conn=w kw=0.00008 kvar=0.00002 numcust=1 kv=0.2078 model=1
new Load._5026121891 phases=3 bus1=_406-3294196_N.1.2.3 conn=w kw=0.00005 kvar=0.00001 numcust=1 kv=0.2078 model=1
new Load._4348670904 phases=3 bus1=_406-3294196_N.1.2.3 conn=w kw=0.00005 kvar=0.00001 numcust=1 kv=0.2078 model=1
new Load._0910369565 phases=2 bus1=_406-92358_N.2.1 conn=w kw=0.00031 kvar=0.00006 numcust=1 kv=0.2078 model=1
new Load._4150369924 phases=2 bus1=_406-92227_N.2.1 conn=w kw=0.00071 kvar=0.00014 numcust=1 kv=0.2078 model=1
new Load._5070369830 phases=2 bus1=_406-92225_N.2.1 conn=w kw=0.00058 kvar=0.00012 numcust=1 kv=0.2078 model=1
new Load._4280106441 phases=2 bus1=_406-92373_N.3.2 conn=w kw=0.00183 kvar=0.00037 numcust=1 kv=0.2078 model=1
new Load._0950369648 phases=2 bus1=_406-92358_N.2.1 conn=w kw=0.00024 kvar=0.00005 numcust=1 kv=0.2078 model=1
new Load._9840368056 phases=2 bus1=_406-92226_N.2.1 conn=w kw=0.00058 kvar=0.00012 numcust=1 kv=0.2078 model=1
new Load._0910370113 phases=2 bus1=_406-92314_N.2.1 conn=w kw=0.00033 kvar=0.00007 numcust=1 kv=0.2078 model=1
new Load._1290364667 phases=2 bus1=_406-92180_N.1.2 conn=w kw=0.00032 kvar=0.00006 numcust=1 kv=0.2078 model=1
new Load._0160521513 phases=3 bus1=_406-92398_N.1.2.3 conn=w kw=0.00050 kvar=0.00010 numcust=1 kv=0.2078 model=1
new Load._3990653955 phases=2 bus1=_406-1855059_N.2.1 conn=w kw=0.00012 kvar=0.00002 numcust=1 kv=0.2078 model=1
new Load._1040108466 phases=2 bus1=_406-92409_N.2.1 conn=w kw=0.00068 kvar=0.00014 numcust=1 kv=0.2078 model=1
new Load._8650365770 phases=3 bus1=_406-92764_N.1.2.3 conn=w kw=0.00023 kvar=0.00005 numcust=1 kv=0.2078 model=1
new Load._8320370202 phases=2 bus1=_406-92224_N.2.1 conn=w kw=0.00051 kvar=0.00010 numcust=1 kv=0.2078 model=1
new Load._2400361634 phases=2 bus1=_406-92184_N.1.2 conn=w kw=0.00027 kvar=0.00005 numcust=1 kv=0.2078 model=1
new Load._2713741913 phases=2 bus1=_406-2457139_N.1.2 conn=w kw=0.00048 kvar=0.00010 numcust=1 kv=0.2078 model=1
new Load._5510103711 phases=3 bus1=_406-92372_N.1.2.3 conn=w kw=0.00957 kvar=0.00194 numcust=1 kv=0.2078 model=1
new Load._3518949515 phases=3 bus1=_406-3294196_N.1.2.3 conn=w kw=0.00006 kvar=0.00001 numcust=1 kv=0.2078 model=1
new Load._4024696106 phases=3 bus1=_406-3294196_N.1.2.3 conn=w kw=0.00025 kvar=0.00005 numcust=1 kv=0.2078 model=1
new Load._0120361864 phases=2 bus1=_406-92201_N.2.1 conn=w kw=0.00020 kvar=0.00004 numcust=1 kv=0.2078 model=1
new Load._4271535042 phases=3 bus1=_406-3294196_N.1.2.3 conn=w kw=0.00005 kvar=0.00001 numcust=1 kv=0.2078 model=1
new Load._0140370910 phases=2 bus1=_406-92300_N.1.2 conn=w kw=0.00024 kvar=0.00005 numcust=1 kv=0.2078 model=1
new Load._8260107513 phases=2 bus1=_406-92629_N.1.3 conn=w kw=0.00030 kvar=0.00006 numcust=1 kv=0.2078 model=1
new Load._9940698913 phases=3 bus1=_406-2050947_N.1.2.3 conn=w kw=0.00134 kvar=0.00027 numcust=1 kv=0.2078 model=1
new Load._2580365737 phases=2 bus1=_406-92180_N.2.1 conn=w kw=0.00032 kvar=0.00006 numcust=1 kv=0.2078 model=1
new Load._6896277344 phases=3 bus1=_406-3279267_N.1.2.3 conn=w kw=0.03238 kvar=0.00658 numcust=1 kv=0.4798 model=1
new Load._0160530212 phases=3 bus1=_406-92398_N.1.2.3 conn=w kw=0.00074 kvar=0.00015 numcust=1 kv=0.2078 model=1
new Load._8650363573 phases=3 bus1=_406-92764_N.1.2.3 conn=w kw=0.00013 kvar=0.00003 numcust=1 kv=0.2078 model=1
new Load._7267193060 phases=3 bus1=_406-3294196_N.1.2.3 conn=w kw=0.00013 kvar=0.00003 numcust=1 kv=0.2078 model=1
new Load._8832513910 phases=3 bus1=_406-3294196_N.1.2.3 conn=w kw=0.00006 kvar=0.00001 numcust=1 kv=0.2078 model=1
new Load._6945062718 phases=3 bus1=_406-3294196_N.1.2.3 conn=w kw=0.00006 kvar=0.00001 numcust=1 kv=0.2078 model=1
new Load._6390371754 phases=2 bus1=_406-92196_N.1.2 conn=w kw=0.00037 kvar=0.00008 numcust=1 kv=0.2078 model=1
new Load._7615989701 phases=3 bus1=_406-3294196_N.1.2.3 conn=w kw=0.00004 kvar=0.00001 numcust=1 kv=0.2078 model=1
new Load._9660361727 phases=2 bus1=_406-92301_N.2.1 conn=w kw=0.00026 kvar=0.00005 numcust=1 kv=0.2078 model=1
new Load._3730707913 phases=2 bus1=_406-92254_N.1.2 conn=w kw=0.00036 kvar=0.00007 numcust=1 kv=0.2078 model=1
new Load._6850390628 phases=3 bus1=_406-92384_N.1.2.3 conn=w kw=0.00066 kvar=0.00013 numcust=1 kv=0.2078 model=1
new Load._3320369070 phases=2 bus1=_406-92180_N.2.1 conn=w kw=0.00026 kvar=0.00005 numcust=1 kv=0.2078 model=1
new Load._9660369457 phases=2 bus1=_406-92301_N.1.2 conn=w kw=0.00063 kvar=0.00013 numcust=1 kv=0.2078 model=1
new Load._6750630033 phases=2 bus1=_406-1073029_N.2.1 conn=w kw=0.00348 kvar=0.00071 numcust=1 kv=0.2078 model=1
new Load._8650366877 phases=3 bus1=_406-92764_N.1.2.3 conn=w kw=0.00015 kvar=0.00003 numcust=1 kv=0.2078 model=1
new Load._8650365546 phases=3 bus1=_406-92764_N.1.2.3 conn=w kw=0.00015 kvar=0.00003 numcust=1 kv=0.2078 model=1
new Load._8650366876 phases=3 bus1=_406-92764_N.1.2.3 conn=w kw=0.00019 kvar=0.00004 numcust=1 kv=0.2078 model=1
new Load._8650365547 phases=3 bus1=_406-92764_N.1.2.3 conn=w kw=0.00014 kvar=0.00003 numcust=1 kv=0.2078 model=1
new Load._9660369212 phases=2 bus1=_406-92269_N.1.2 conn=w kw=0.00024 kvar=0.00005 numcust=1 kv=0.2078 model=1
new Load._8650366839 phases=3 bus1=_406-92764_N.1.2.3 conn=w kw=0.00025 kvar=0.00005 numcust=1 kv=0.2078 model=1
new Load._8650366838 phases=3 bus1=_406-92764_N.1.2.3 conn=w kw=0.00008 kvar=0.00002 numcust=1 kv=0.2078 model=1
new Load._0530654383 phases=3 bus1=_406-1325510_N.1.2.3 conn=w kw=0.00033 kvar=0.00007 numcust=1 kv=0.2078 model=1
new Load._1285435426 phases=3 bus1=_406-3294196_N.1.2.3 conn=w kw=0.00005 kvar=0.00001 numcust=1 kv=0.2078 model=1
new Load._3410372095 phases=3 bus1=_406-92310_N.1.2.3 conn=w kw=0.00441 kvar=0.00090 numcust=1 kv=0.2078 model=1
new Load._1130706040 phases=2 bus1=_406-91618_N.2.1 conn=w kw=0.00077 kvar=0.00016 numcust=1 kv=0.2078 model=1
new Load._2470690846 phases=3 bus1=_406-1833573_N.1.2.3 conn=w kw=0.00060 kvar=0.00012 numcust=1 kv=0.2078 model=1
new Load._2595372160 phases=3 bus1=_406-1855460_N.1.2.3 conn=w kw=0.00018 kvar=0.00004 numcust=1 kv=0.2078 model=1
new Load._0603201199 phases=3 bus1=_406-3294196_N.1.2.3 conn=w kw=0.00005 kvar=0.00001 numcust=1 kv=0.2078 model=1
new Load._6850102603 phases=3 bus1=_406-92383_N.1.2.3 conn=w kw=0.00003 kvar=0.00001 numcust=1 kv=0.2078 model=1
new Load._6850102602 phases=3 bus1=_406-92383_N.1.2.3 conn=w kw=0.00064 kvar=0.00013 numcust=1 kv=0.2078 model=1
new Load._8650365993 phases=3 bus1=_406-92770_N.1.2.3 conn=w kw=0.00020 kvar=0.00004 numcust=1 kv=0.2078 model=1
new Load._8650365994 phases=3 bus1=_406-92770_N.1.2.3 conn=w kw=0.00015 kvar=0.00003 numcust=1 kv=0.2078 model=1
new Load._8650365995 phases=3 bus1=_406-92770_N.1.2.3 conn=w kw=0.00010 kvar=0.00002 numcust=1 kv=0.2078 model=1
new Load._8650365996 phases=3 bus1=_406-92770_N.1.2.3 conn=w kw=0.00016 kvar=0.00003 numcust=1 kv=0.2078 model=1
new Load._7280108258 phases=3 bus1=_406-92664_N.1.2.3 conn=w kw=0.00181 kvar=0.00037 numcust=1 kv=0.2078 model=1
new Load._8650363357 phases=3 bus1=_406-92770_N.1.2.3 conn=w kw=0.00034 kvar=0.00007 numcust=1 kv=0.2078 model=1
new Load._8650363356 phases=3 bus1=_406-92770_N.1.2.3 conn=w kw=0.00016 kvar=0.00003 numcust=1 kv=0.2078 model=1
new Load._9940213206 phases=2 bus1=_406-2901811_N.1.2 conn=w kw=0.00000 kvar=0.00000 numcust=1 kv=0.2078 model=1
new Load._8260109919 phases=3 bus1=_406-92632_N.1.2.3 conn=w kw=0.01570 kvar=0.00319 numcust=1 kv=0.4798 model=1
new Load._8650363591 phases=3 bus1=_406-92764_N.1.2.3 conn=w kw=0.00024 kvar=0.00005 numcust=1 kv=0.2078 model=1
new Load._8650363590 phases=3 bus1=_406-92764_N.1.2.3 conn=w kw=0.00025 kvar=0.00005 numcust=1 kv=0.2078 model=1
new Load._2120861123 phases=3 bus1=_406-3294196_N.1.2.3 conn=w kw=0.00005 kvar=0.00001 numcust=1 kv=0.2078 model=1
new Load._4310781051 phases=2 bus1=_406-2099290_N.1.2 conn=w kw=0.10000 kvar=0.00000 numcust=1 kv=0.2078 model=1
new Load._1191606133 phases=3 bus1=_406-3294196_N.1.2.3 conn=w kw=0.00005 kvar=0.00001 numcust=1 kv=0.2078 model=1
new Load._0910364911 phases=2 bus1=_406-92299_N.1.2 conn=w kw=0.00027 kvar=0.00005 numcust=1 kv=0.2078 model=1
new Load._9450365378 phases=2 bus1=_406-92311_N.2.1 conn=w kw=0.00039 kvar=0.00008 numcust=1 kv=0.2078 model=1
new Load._8598954247 phases=2 bus1=_406-2457139_N.2.1 conn=w kw=0.00041 kvar=0.00008 numcust=1 kv=0.2078 model=1
new Load._9660366163 phases=2 bus1=_406-92301_N.2.1 conn=w kw=0.00015 kvar=0.00003 numcust=1 kv=0.2078 model=1
new Load._9660367493 phases=2 bus1=_406-92276_N.1.2 conn=w kw=0.00015 kvar=0.00003 numcust=1 kv=0.2078 model=1
new Load._6440365412 phases=2 bus1=_406-92300_N.1.2 conn=w kw=0.00044 kvar=0.00009 numcust=1 kv=0.2078 model=1
new Load._3215574919 phases=3 bus1=_406-3294196_N.1.2.3 conn=w kw=0.00007 kvar=0.00001 numcust=1 kv=0.2078 model=1
new Load._3910585064 phases=3 bus1=_406-1853781_N.1.2.3 conn=w kw=0.00271 kvar=0.00055 numcust=1 kv=0.2078 model=1
new Load._6820107286 phases=2 bus1=_406-92471_N.3.2 conn=w kw=0.00175 kvar=0.00036 numcust=1 kv=0.2078 model=1
new Load._7330687817 phases=3 bus1=_406-2050947_N.1.2.3 conn=w kw=0.00124 kvar=0.00025 numcust=1 kv=0.2078 model=1
new Load._3880751969 phases=3 bus1=_406-3294196_N.1.2.3 conn=w kw=0.00010 kvar=0.00002 numcust=1 kv=0.2078 model=1
new Load._4310773854 phases=2 bus1=_406-2101886_N.2.1 conn=w kw=0.10000 kvar=0.00000 numcust=1 kv=0.2078 model=1
new Load._1760183543 phases=3 bus1=_406-3294196_N.1.2.3 conn=w kw=0.00005 kvar=0.00001 numcust=1 kv=0.2078 model=1
new Load._3250109221 phases=2 bus1=_406-92411_N.3.2 conn=w kw=0.00142 kvar=0.00029 numcust=1 kv=0.2078 model=1
new Load._4120602053 phases=3 bus1=_406-92691_N.1.2.3 conn=w kw=0.00762 kvar=0.00155 numcust=1 kv=0.2078 model=1
new Load._8650365577 phases=3 bus1=_406-92764_N.1.2.3 conn=w kw=0.00024 kvar=0.00005 numcust=1 kv=0.2078 model=1
new Load._7410689743 phases=3 bus1=_406-2050947_N.1.2.3 conn=w kw=0.00071 kvar=0.00014 numcust=1 kv=0.2078 model=1
new Load._8650365578 phases=3 bus1=_406-92764_N.1.2.3 conn=w kw=0.00018 kvar=0.00004 numcust=1 kv=0.2078 model=1
new Load._8650365579 phases=3 bus1=_406-92764_N.1.2.3 conn=w kw=0.00024 kvar=0.00005 numcust=1 kv=0.2078 model=1
new Load._4323556496 phases=3 bus1=_406-3294196_N.1.2.3 conn=w kw=0.00006 kvar=0.00001 numcust=1 kv=0.2078 model=1
new Load._9324761719 phases=3 bus1=_406-3294196_N.1.2.3 conn=w kw=0.00006 kvar=0.00001 numcust=1 kv=0.2078 model=1
new Load._1801659904 phases=3 bus1=_406-3294196_N.1.2.3 conn=w kw=0.00007 kvar=0.00001 numcust=1 kv=0.2078 model=1
new Load._4632779224 phases=3 bus1=_406-3294196_N.1.2.3 conn=w kw=0.00013 kvar=0.00003 numcust=1 kv=0.2078 model=1
new Load._8650365580 phases=3 bus1=_406-92764_N.1.2.3 conn=w kw=0.00016 kvar=0.00003 numcust=1 kv=0.2078 model=1
new Load._9100366416 phases=2 bus1=_406-92311_N.1.2 conn=w kw=0.00019 kvar=0.00004 numcust=1 kv=0.2078 model=1
new Load._7380672030 phases=3 bus1=_406-1325510_N.1.2.3 conn=w kw=0.00085 kvar=0.00017 numcust=1 kv=0.2078 model=1
new Load._2831979166 phases=3 bus1=_406-3294196_N.1.2.3 conn=w kw=0.00000 kvar=0.00000 numcust=1 kv=0.2078 model=1
new Load._4860364640 phases=2 bus1=_406-92192_N.2.1 conn=w kw=0.00016 kvar=0.00003 numcust=1 kv=0.2078 model=1
new Load._8300604096 phases=2 bus1=_406-769000_N.1.2 conn=w kw=0.00005 kvar=0.00001 numcust=1 kv=0.2078 model=1
new Load._8650365346 phases=3 bus1=_406-92764_N.1.2.3 conn=w kw=0.00014 kvar=0.00003 numcust=1 kv=0.2078 model=1
new Load._8650368853 phases=3 bus1=_406-92764_N.1.2.3 conn=w kw=0.00014 kvar=0.00003 numcust=1 kv=0.2078 model=1
new Load._4310757142 phases=2 bus1=_406-2102383_N.2.1 conn=w kw=0.10000 kvar=0.00000 numcust=1 kv=0.2078 model=1
new Load._7410105145 phases=2 bus1=_406-92386_N.3.2 conn=w kw=0.00064 kvar=0.00013 numcust=1 kv=0.2078 model=1
new Load._8650365347 phases=3 bus1=_406-92764_N.1.2.3 conn=w kw=0.00019 kvar=0.00004 numcust=1 kv=0.2078 model=1
new Load._5740104790 phases=2 bus1=_406-92390_N.3.2 conn=w kw=0.00091 kvar=0.00018 numcust=1 kv=0.2078 model=1
new Load._8380451403 phases=3 bus1=_406-92422_N.1.2.3 conn=w kw=0.00029 kvar=0.00006 numcust=1 kv=0.2078 model=1
new Load._2740571863 phases=2 bus1=_406-92467_N.3.2 conn=w kw=0.00025 kvar=0.00005 numcust=1 kv=0.2078 model=1
new Load._6360371938 phases=2 bus1=_406-92245_N.2.1 conn=w kw=0.00041 kvar=0.00008 numcust=1 kv=0.2078 model=1
new Load._4173720424 phases=3 bus1=_406-3294196_N.1.2.3 conn=w kw=0.00006 kvar=0.00001 numcust=1 kv=0.2078 model=1
new Load._6980690605 phases=3 bus1=_406-2050947_N.1.2.3 conn=w kw=0.00254 kvar=0.00052 numcust=1 kv=0.2078 model=1
new Load._1670361729 phases=2 bus1=_406-92317_N.2.1 conn=w kw=0.00057 kvar=0.00012 numcust=1 kv=0.2078 model=1
new Load._2291455007 phases=2 bus1=_406-3392071_N.1.2 conn=w kw=0.00004 kvar=0.00001 numcust=1 kv=0.2078 model=1
new Load._3630369958 phases=3 bus1=_406-92229_N.1.2.3 conn=w kw=0.00024 kvar=0.00005 numcust=1 kv=0.2078 model=1
new Load._5910109608 phases=3 bus1=_406-92756_N.1.2.3 conn=w kw=0.01978 kvar=0.00402 numcust=1 kv=0.2078 model=1
new Load._6940363750 phases=2 bus1=_406-92204_N.2.1 conn=w kw=0.00040 kvar=0.00008 numcust=1 kv=0.2078 model=1
new Load._4310779189 phases=3 bus1=_406-2095731_N.1.2.3 conn=w kw=0.10000 kvar=0.00000 numcust=1 kv=0.2078 model=1
new Load._8650364224 phases=3 bus1=_406-92770_N.1.2.3 conn=w kw=0.00011 kvar=0.00002 numcust=1 kv=0.2078 model=1
new Load._8650365797 phases=3 bus1=_406-92764_N.1.2.3 conn=w kw=0.00012 kvar=0.00002 numcust=1 kv=0.2078 model=1
new Load._7941575673 phases=3 bus1=_406-2057957_N.1.2.3 conn=w kw=0.04281 kvar=0.00869 numcust=1 kv=0.4798 model=1
new Load._8650364225 phases=3 bus1=_406-92770_N.1.2.3 conn=w kw=0.00013 kvar=0.00003 numcust=1 kv=0.2078 model=1
new Load._8650365798 phases=3 bus1=_406-92764_N.1.2.3 conn=w kw=0.00021 kvar=0.00004 numcust=1 kv=0.2078 model=1
new Load._8650364226 phases=3 bus1=_406-92770_N.1.2.3 conn=w kw=0.00013 kvar=0.00003 numcust=1 kv=0.2078 model=1
new Load._8650365799 phases=3 bus1=_406-92764_N.1.2.3 conn=w kw=0.00021 kvar=0.00004 numcust=1 kv=0.2078 model=1
new Load._9160106781 phases=2 bus1=_406-92470_N.3.2 conn=w kw=0.00017 kvar=0.00003 numcust=1 kv=0.2078 model=1
new Load._0160366635 phases=2 bus1=_406-92300_N.1.2 conn=w kw=0.00043 kvar=0.00009 numcust=1 kv=0.2078 model=1
new Load._4930105986 phases=3 bus1=_406-92439_N.1.2.3 conn=w kw=0.00145 kvar=0.00029 numcust=1 kv=0.2078 model=1
new Load._2969840715 phases=3 bus1=_406-3294196_N.1.2.3 conn=w kw=0.00016 kvar=0.00003 numcust=1 kv=0.2078 model=1
new Load._4179415809 phases=3 bus1=_406-3294196_N.1.2.3 conn=w kw=0.00011 kvar=0.00002 numcust=1 kv=0.2078 model=1
new Load._3340637255 phases=3 bus1=_406-1855459_N.1.2.3 conn=w kw=0.00027 kvar=0.00005 numcust=1 kv=0.2078 model=1
new Load._1343007017 phases=3 bus1=_406-3294196_N.1.2.3 conn=w kw=0.00020 kvar=0.00004 numcust=1 kv=0.2078 model=1
new Load._0660704958 phases=2 bus1=_406-2259716_N.2.1 conn=w kw=0.00057 kvar=0.00012 numcust=1 kv=0.2078 model=1
new Load._4310764929 phases=2 bus1=_406-2102272_N.2.1 conn=w kw=0.10000 kvar=0.00000 numcust=1 kv=0.2078 model=1
new Load._7000358583 phases=2 bus1=_406-92193_N.1.2 conn=w kw=0.00056 kvar=0.00011 numcust=1 kv=0.2078 model=1
new Load._8650367742 phases=3 bus1=_406-92770_N.1.2.3 conn=w kw=0.00009 kvar=0.00002 numcust=1 kv=0.2078 model=1
new Load._2720449782 phases=3 bus1=_406-92423_N.1.2.3 conn=w kw=0.00043 kvar=0.00009 numcust=1 kv=0.2078 model=1
new Load._6540108021 phases=2 bus1=_406-92353_N.1.2 conn=w kw=0.00060 kvar=0.00012 numcust=1 kv=0.2078 model=1
new Load._8650367746 phases=3 bus1=_406-92770_N.1.2.3 conn=w kw=0.00182 kvar=0.00037 numcust=1 kv=0.2078 model=1
new Load._8650366414 phases=3 bus1=_406-92764_N.1.2.3 conn=w kw=0.00036 kvar=0.00007 numcust=1 kv=0.2078 model=1
new Load._8650367745 phases=3 bus1=_406-92770_N.1.2.3 conn=w kw=0.00011 kvar=0.00002 numcust=1 kv=0.2078 model=1
new Load._1241246017 phases=3 bus1=_406-3294196_N.1.2.3 conn=w kw=0.00005 kvar=0.00001 numcust=1 kv=0.2078 model=1
new Load._7171479398 phases=3 bus1=_406-1448211_N.1.2.3 conn=w kw=0.00024 kvar=0.00005 numcust=1 kv=0.2078 model=1
new Load._0000108688 phases=3 bus1=_406-92424_N.1.2.3 conn=w kw=0.00091 kvar=0.00018 numcust=1 kv=0.2078 model=1
new Load._6890372879 phases=2 bus1=_406-92212_N.1.2 conn=w kw=0.00047 kvar=0.00010 numcust=1 kv=0.2078 model=1
new Load._1340012935 phases=3 bus1=_406-3294196_N.1.2.3 conn=w kw=0.00006 kvar=0.00001 numcust=1 kv=0.2078 model=1
new Load._3530541560 phases=3 bus1=_406-92379_N.1.2.3 conn=w kw=0.00005 kvar=0.00001 numcust=1 kv=0.2078 model=1
new Load._5480887193 phases=3 bus1=_406-3294196_N.1.2.3 conn=w kw=0.00005 kvar=0.00001 numcust=1 kv=0.2078 model=1
new Load._5230705607 phases=2 bus1=_406-92373_N.2.3 conn=w kw=0.00134 kvar=0.00027 numcust=1 kv=0.2078 model=1
new Load._8650365375 phases=3 bus1=_406-92764_N.1.2.3 conn=w kw=0.00023 kvar=0.00005 numcust=1 kv=0.2078 model=1
new Load._8650365376 phases=3 bus1=_406-92764_N.1.2.3 conn=w kw=0.00025 kvar=0.00005 numcust=1 kv=0.2078 model=1
new Load._2720447572 phases=3 bus1=_406-92423_N.1.2.3 conn=w kw=0.00028 kvar=0.00006 numcust=1 kv=0.2078 model=1
new Load._3450688800 phases=3 bus1=_406-2030483_N.1.2.3 conn=w kw=0.00021 kvar=0.00004 numcust=1 kv=0.2078 model=1
new Load._8650365377 phases=3 bus1=_406-92764_N.1.2.3 conn=w kw=0.00036 kvar=0.00007 numcust=1 kv=0.2078 model=1
new Load._8650364048 phases=3 bus1=_406-92770_N.1.2.3 conn=w kw=0.00019 kvar=0.00004 numcust=1 kv=0.2078 model=1
new Load._8650364049 phases=3 bus1=_406-92770_N.1.2.3 conn=w kw=0.00012 kvar=0.00002 numcust=1 kv=0.2078 model=1
new Load._9252800790 phases=3 bus1=_406-3294196_N.1.2.3 conn=w kw=0.00006 kvar=0.00001 numcust=1 kv=0.2078 model=1
new Load._4970705820 phases=2 bus1=_406-2259716_N.2.1 conn=w kw=0.00090 kvar=0.00018 numcust=1 kv=0.2078 model=1
new Load._6780369455 phases=2 bus1=_406-92311_N.1.2 conn=w kw=0.00039 kvar=0.00008 numcust=1 kv=0.2078 model=1
new Load._0621265432 phases=3 bus1=_406-3294196_N.1.2.3 conn=w kw=0.00006 kvar=0.00001 numcust=1 kv=0.2078 model=1
new Load._9330478985 phases=2 bus1=_406-92333_N.1.2 conn=w kw=0.00058 kvar=0.00012 numcust=1 kv=0.2078 model=1
...
