rawData/OpenDSS_Alpha_Model/Transformer.dss
new Transformer.AVA22958_AVA22977_AVA23008_TNK bank=AVA22958_AVA22977_AVA23008 xfmrcode=_45000_kVA_13200V/120V_3PH_TI
~ wdg=1 bus=_409-23095_N.1.2.3
~ wdg=2 bus=_409-23095_N_SEC.1.2.3
new Transformer.AVE01431_AVE01404_AVE01433_TNK bank=AVE01431_AVE01404_AVE01433 xfmrcode=_75000_kVA_13200V/120V_3PH_TI
~ wdg=1 bus=_409-23100_N.1.2.3
~ wdg=2 bus=_409-23100_N_SEC.1.2.3
new Transformer.AVE07855_AVE08233_AVE07832_TNK bank=AVE07855_AVE08233_AVE07832 xfmrcode=_150000_kVA_13200V/120V_3PH_TI
~ wdg=1 bus=_409-23127_N.1.2.3
~ wdg=2 bus=_409-23127_N_SEC.1.2.3
new Transformer.SE6469_____TNK bank=SE6469____ xfmrcode=_25000_kVA_13200V/120V_1PH_TI
~ wdg=1 bus=_409-23019_N.1
~ wdg=2 bus=_409-23019_N_SEC.1.0
~ wdg=3 bus=_409-23019_N_SEC.0.2
new Transformer.SC4977_AVA08919_SC4978_TNK bank=SC4977_AVA08919_SC4978 xfmrcode=_75000_kVA_13200V/120V_3PH_TI
~ wdg=1 bus=_409-23037_N.1.2.3
~ wdg=2 bus=_409-23037_N_SEC.1.2.3
new Transformer.SE3025_SE3024_SE3023_TNK bank=SE3025_SE3024_SE3023 xfmrcode=_150000_kVA_13200V/120V_3PH_TI
~ wdg=1 bus=_409-23080_N.1.2.3
~ wdg=2 bus=_409-23080_N_SEC.1.2.3
new Transformer.AVE01068_AVE01250_AVE01249_TNK bank=AVE01068_AVE01250_AVE01249 xfmrcode=_225000_kVA_13200V/120V_3PH_TI
~ wdg=1 bus=_409-23090_N.1.2.3
~ wdg=2 bus=_409-23090_N_SEC.1.2.3
new Transformer.AVC10829_AVC12818_AVC12597_TNK bank=AVC10829_AVC12818_AVC12597 xfmrcode=_150000_kVA_13200V/120V_3PH_TI
~ wdg=1 bus=_409-23073_N.1.2.3
~ wdg=2 bus=_409-23073_N_SEC.1.2.3
new Transformer.AVE31199_TNK bank=AVE31199 xfmrcode=_225000_kVA_13200V/120V_3PH_TI
~ wdg=1 bus=_391-2625460_N.1.2.3
~ wdg=2 bus=_391-2625460_LN.1.2.3
new Transformer.AVE01310_AVE07138_AVA11747_TNK bank=AVE01310_AVE07138_AVA11747 xfmrcode=_200000_kVA_13200V/120V_3PH_TI
~ wdg=1 bus=_409-1392532_N.1.2.3
~ wdg=2 bus=_409-1392532_N_SEC.1.2.3
new Transformer.AVE31154_TNK bank=AVE31154 xfmrcode=_1000000_kVA_13200V/120V_3PH_TI
~ wdg=1 bus=_391-2545844_N.1.2.3
~ wdg=2 bus=_391-2545844_LN.1.2.3
new Transformer.AVA07453_AVA08187_AVA08183_TNK bank=AVA07453_AVA08187_AVA08183 xfmrcode=_125000_kVA_13200V/120V_3PH_TI
~ wdg=1 bus=_409-23035_N.1.2.3
~ wdg=2 bus=_409-23035_N_SEC.1.2.3
new Transformer.AVE01219_AVE01218_AVE01210_TNK bank=AVE01219_AVE01218_AVE01210 xfmrcode=_225000_kVA_13200V/120V_3PH_TI
~ wdg=1 bus=_409-1262899_N.1.2.3
~ wdg=2 bus=_409-1262899_N_SEC.1.2.3
new Transformer.SF6904_TNK bank=SF6904 xfmrcode=_225000_kVA_13200V/120V_3PH_TI
~ wdg=1 bus=_391-33198_N.1.2.3
~ wdg=2 bus=_391-33198_LN.1.2.3
new Transformer.AV04592_AV04594_AV04583_TNK bank=AV04592_AV04594_AV04583 xfmrcode=_150000_kVA_13200V/120V_3PH_TI
~ wdg=1 bus=_409-719428_N.1.2.3
~ wdg=2 bus=_409-719428_N_SEC.1.2.3
new Transformer.AVA14412_AVA14386_AVA13094_TNK bank=AVA14412_AVA14386_AVA13094 xfmrcode=_45000_kVA_13200V/120V_3PH_TI
~ wdg=1 bus=_409-23043_N.1.2.3
~ wdg=2 bus=_409-23043_N_SEC.1.2.3
new Transformer.AVA08069___AVA09637_TNK bank=AVA08069___AVA09637 xfmrcode=_62500_kVA_13200V/120V_2PH_TI
~ wdg=1 bus=_409-23074_N.1.3
~ wdg=2 bus=_409-23074_N_SEC.1.3
new Transformer.AVE08775_____TNK bank=AVE08775____ xfmrcode=_100000_kVA_13200V/120V_1PH_TI
~ wdg=1 bus=_409-23044_N.1
~ wdg=2 bus=_409-23044_N_SEC.1.0
~ wdg=3 bus=_409-23044_N_SEC.0.2
new Transformer.SG0569_SG0564_SG0566_TNK bank=SG0569_SG0564_SG0566 xfmrcode=_100000_kVA_13200V/120V_3PH_TI
~ wdg=1 bus=_409-176291_N.1.2.3
~ wdg=2 bus=_409-176291_N_SEC.1.2.3
new Transformer.AVE03123_AVE00949_AVE00583_TNK bank=AVE03123_AVE00949_AVE00583 xfmrcode=_125000_kVA_13200V/120V_3PH_TI
~ wdg=1 bus=_409-22698_N.1.2.3
~ wdg=2 bus=_409-22698_N_SEC.1.2.3
new Transformer.AVA21375_____TNK bank=AVA21375____ xfmrcode=_37500_kVA_13200V/120V_1PH_TI
~ wdg=1 bus=_409-23048_N.1
~ wdg=2 bus=_409-23048_N_SEC.1.0
~ wdg=3 bus=_409-23048_N_SEC.0.2
new Transformer.AVA02769_AVA00242_AVA01057_TNK bank=AVA02769_AVA00242_AVA01057 xfmrcode=_55000_kVA_13200V/120V_3PH_TI
~ wdg=1 bus=_409-22700_N.1.2.3
~ wdg=2 bus=_409-22700_N_SEC.1.2.3
new Transformer.AVE01512_AVA14455_AVA14489_TNK bank=AVE01512_AVA14455_AVA14489 xfmrcode=_55000_kVA_13200V/120V_3PH_TI
~ wdg=1 bus=_409-23096_N.1.2.3
~ wdg=2 bus=_409-23096_N_SEC.1.2.3
new Transformer.AVC21683_AVC21682_AVC21672_TNK bank=AVC21683_AVC21682_AVC21672 xfmrcode=_150000_kVA_13200V/277V_3PH_TI
~ wdg=1 bus=_409-2046771_N.1.2.3
~ wdg=2 bus=_409-2046771_N_SEC.1.2.3
new Transformer._416:4523_C_TNK bank=_416-4523-0_C xfmrcode=_416:4523_C_TNKI
~ wdg=1 bus=_416-4523_SN.3
~ wdg=2 bus=_416-4523_LN.3
new Transformer.____AVE09389_TNK bank=____AVE09389 xfmrcode=_75000_kVA_13200V/120V_1PH_TI
~ wdg=1 bus=_409-23023_N.3
~ wdg=2 bus=_409-23023_N_SEC.1.0
~ wdg=3 bus=_409-23023_N_SEC.0.2
new Transformer.AVE30444_TNK bank=AVE30444 xfmrcode=_300000_kVA_13200V/120V_3PH_TI
~ wdg=1 bus=_391-33252_N.1.2.3
~ wdg=2 bus=_391-33252_LN.1.2.3
new Transformer.__AV05378___TNK bank=__AV05378__ xfmrcode=_15000_kVA_13200V/120V_1PH_TI
~ wdg=1 bus=_409-704709_N.2
~ wdg=2 bus=_409-704709_N_SEC.1.0
~ wdg=3 bus=_409-704709_N_SEC.0.2
...